[TITLE]
;;Project Title/Notes
Example 1

[OPTIONS]
;;Option             Value
FLOW_UNITS           CFS
INFILTRATION         HORTON
FLOW_ROUTING         KINWAVE
LINK_OFFSETS         DEPTH
MIN_SLOPE            0
ALLOW_PONDING        NO
SKIP_STEADY_STATE    NO

START_DATE           01/01/1998
START_TIME           00:00:00
REPORT_START_DATE    01/01/1998
REPORT_START_TIME    00:00:00
END_DATE             01/02/1998
END_TIME             12:00:00
SWEEP_START          01/01
SWEEP_END            12/31
DRY_DAYS             5
REPORT_STEP          01:00:00
WET_STEP             00:15:00
DRY_STEP             01:00:00
ROUTING_STEP         0:01:00 
RULE_STEP            00:00:00

INERTIAL_DAMPING     PARTIAL
NORMAL_FLOW_LIMITED  BOTH
FORCE_MAIN_EQUATION  H-W
VARIABLE_STEP        0.75
LENGTHENING_STEP     0
MIN_SURFAREA         12.566
MAX_TRIALS           8
HEAD_TOLERANCE       0.005
SYS_FLOW_TOL         5
LAT_FLOW_TOL         5
MINIMUM_STEP         0.5
THREADS              1

[EVAPORATION]
;;Data Source    Parameters
;;-------------- ----------------
CONSTANT         0.0
DRY_ONLY         NO

[RAINGAGES]
;;Name           Format    Interval SCF      Source    
;;-------------- --------- ------ ------ ----------
1              INTENSITY 1:00     1.0      TIMESERIES TS1             

[SUBCATCHMENTS]
;;Name           Rain Gage        Outlet           Area     %Imperv  Width    %Slope   CurbLen  SnowPack        
;;-------------- ---------------- ---------------- -------- -------- -------- -------- -------- ----------------
370995439 1                Inflow_Junction  5        2        500      0.5      0 
370997097 1                Inflow_Junction  5        2        500      0.5      0 
370995435 1                Inflow_Junction  5        2        500      0.5      0 
370995447 1                Inflow_Junction  5        2        500      0.5      0 
685933309 1                Inflow_Junction  5        2        500      0.5      0 
374494683 1                Inflow_Junction  5        2        500      0.5      0 
685879161 1                Inflow_Junction  5        2        500      0.5      0 
685933307 1                Inflow_Junction  5        2        500      0.5      0 
375011373 1                Inflow_Junction  5        2        500      0.5      0 
685913793 1                Inflow_Junction  5        2        500      0.5      0 
685883514 1                Inflow_Junction  5        2        500      0.5      0 
685877782 1                Inflow_Junction  5        2        500      0.5      0 
685874598 1                Inflow_Junction  5        2        500      0.5      0 
685875663 1                Inflow_Junction  5        2        500      0.5      0 
374494685 1                Inflow_Junction  5        2        500      0.5      0 
685909942 1                Inflow_Junction  5        2        500      0.5      0 
685913796 1                Inflow_Junction  5        2        500      0.5      0 
685877638 1                Inflow_Junction  5        2        500      0.5      0 
685472658 1                Inflow_Junction  5        2        500      0.5      0 
685882661 1                Inflow_Junction  5        2        500      0.5      0 
370997098 1                Inflow_Junction  5        2        500      0.5      0 
1752667827121555 1                Inflow_Junction  5        2        500      0.5      0 
685874048 1                Inflow_Junction  5        2        500      0.5      0 
685885820 1                Inflow_Junction  5        2        500      0.5      0 
374494686 1                Inflow_Junction  5        2        500      0.5      0 
685878130 1                Inflow_Junction  5        2        500      0.5      0 
685885819 1                Inflow_Junction  5        2        500      0.5      0 
685926441 1                Inflow_Junction  5        2        500      0.5      0 
685877956 1                Inflow_Junction  5        2        500      0.5      0 
1213973655851495 1                Inflow_Junction  5        2        500      0.5      0 
685882835 1                Inflow_Junction  5        2        500      0.5      0 
685874796 1                Inflow_Junction  5        2        500      0.5      0 
134955126411405 1                Inflow_Junction  5        2        500      0.5      0 
4091570214933675 1                Inflow_Junction  5        2        500      0.5      0 
3167579606707235 1                Inflow_Junction  5        2        500      0.5      0 
398538993186535 1                Inflow_Junction  5        2        500      0.5      0 
5157460039455535 1                Inflow_Junction  5        2        500      0.5      0 
374629176 1                Inflow_Junction  5        2        500      0.5      0 
4398983480386405 1                Inflow_Junction  5        2        500      0.5      0 
4053187851093285 1                Inflow_Junction  5        2        500      0.5      0 
1448521660236735 1                Inflow_Junction  5        2        500      0.5      0 
1220338464205595 1                Inflow_Junction  5        2        500      0.5      0 
370276442 1                Inflow_Junction  5        2        500      0.5      0 
3881420723527275 1                Inflow_Junction  5        2        500      0.5      0 
374629175 1                Inflow_Junction  5        2        500      0.5      0 
375109508 1                Inflow_Junction  5        2        500      0.5      0 
4605277256059175 1                Inflow_Junction  5        2        500      0.5      0 
370934347905915 1                Inflow_Junction  5        2        500      0.5      0 
4394804005829765 1                Inflow_Junction  5        2        500      0.5      0 
685969424 1                Inflow_Junction  5        2        500      0.5      0 
5531202424173705 1                Inflow_Junction  5        2        500      0.5      0 
2437958647308555 1                Inflow_Junction  5        2        500      0.5      0 
1351552798623385 1                Inflow_Junction  5        2        500      0.5      0 
4235476910067515 1                Inflow_Junction  5        2        500      0.5      0 
839088263721825 1                Inflow_Junction  5        2        500      0.5      0 
4535425796051525 1                Inflow_Junction  5        2        500      0.5      0 
2483776702980555 1                Inflow_Junction  5        2        500      0.5      0 
1886641471372695 1                Inflow_Junction  5        2        500      0.5      0 
1544216086485295 1                Inflow_Junction  5        2        500      0.5      0 
370585511 1                Inflow_Junction  5        2        500      0.5      0 
4265632450309875 1                Inflow_Junction  5        2        500      0.5      0 
4917957991456495 1                Inflow_Junction  5        2        500      0.5      0 
374628274 1                Inflow_Junction  5        2        500      0.5      0 
374628275 1                Inflow_Junction  5        2        500      0.5      0 
1145568240444705 1                Inflow_Junction  5        2        500      0.5      0 
174261341122835 1                Inflow_Junction  5        2        500      0.5      0 
4088208754605765 1                Inflow_Junction  5        2        500      0.5      0 
375109506 1                Inflow_Junction  5        2        500      0.5      0 
3451180154337545 1                Inflow_Junction  5        2        500      0.5      0 
2714497763837645 1                Inflow_Junction  5        2        500      0.5      0 
2542274248462105 1                Inflow_Junction  5        2        500      0.5      0 
369935480 1                Inflow_Junction  5        2        500      0.5      0 
370276424 1                Inflow_Junction  5        2        500      0.5      0 
374628276 1                Inflow_Junction  5        2        500      0.5      0 
2297284081073355 1                Inflow_Junction  5        2        500      0.5      0 
2914084063253065 1                Inflow_Junction  5        2        500      0.5      0 
369935496 1                Inflow_Junction  5        2        500      0.5      0 
713405900011335 1                Inflow_Junction  5        2        500      0.5      0 
2516190266764155 1                Inflow_Junction  5        2        500      0.5      0 
5602778212592045 1                Inflow_Junction  5        2        500      0.5      0 
750363496675355 1                Inflow_Junction  5        2        500      0.5      0 
2979121345560105 1                Inflow_Junction  5        2        500      0.5      0 
2995047727490925 1                Inflow_Junction  5        2        500      0.5      0 
2243817674945495 1                Inflow_Junction  5        2        500      0.5      0 
2604609012658865 1                Inflow_Junction  5        2        500      0.5      0 
1617676937829845 1                Inflow_Junction  5        2        500      0.5      0 
5478545555890815 1                Inflow_Junction  5        2        500      0.5      0 
5220362509116755 1                Inflow_Junction  5        2        500      0.5      0 
1859206529744015 1                Inflow_Junction  5        2        500      0.5      0 
375109507 1                Inflow_Junction  5        2        500      0.5      0 
2151138269522915 1                Inflow_Junction  5        2        500      0.5      0 
4650661269543295 1                Inflow_Junction  5        2        500      0.5      0 
388181828 1                Inflow_Junction  5        2        500      0.5      0 
4186704481955285 1                Inflow_Junction  5        2        500      0.5      0 
3798022896651235 1                Inflow_Junction  5        2        500      0.5      0 
1804756951380835 1                Inflow_Junction  5        2        500      0.5      0 
1098608080110745 1                Inflow_Junction  5        2        500      0.5      0 
3830783165009325 1                Inflow_Junction  5        2        500      0.5      0 
5142534242675515 1                Inflow_Junction  5        2        500      0.5      0 
1062021281050945 1                Inflow_Junction  5        2        500      0.5      0 
369935488 1                Inflow_Junction  5        2        500      0.5      0 
388181158 1                Inflow_Junction  5        2        500      0.5      0 
369935483 1                Inflow_Junction  5        2        500      0.5      0 
1692392045315935 1                Inflow_Junction  5        2        500      0.5      0 
5568726541859455 1                Inflow_Junction  5        2        500      0.5      0 
685969507 1                Inflow_Junction  5        2        500      0.5      0 
3271774309926695 1                Inflow_Junction  5        2        500      0.5      0 
369935493 1                Inflow_Junction  5        2        500      0.5      0 
369935487 1                Inflow_Junction  5        2        500      0.5      0 
369935494 1                Inflow_Junction  5        2        500      0.5      0 
2980645255497015 1                Inflow_Junction  5        2        500      0.5      0 
15190031824745 1                Inflow_Junction  5        2        500      0.5      0 
2797712357301035 1                Inflow_Junction  5        2        500      0.5      0 
685969423 1                Inflow_Junction  5        2        500      0.5      0 
2893936086714105 1                Inflow_Junction  5        2        500      0.5      0 
4966813987486135 1                Inflow_Junction  5        2        500      0.5      0 
1111007246540285 1                Inflow_Junction  5        2        500      0.5      0 
3086794160747535 1                Inflow_Junction  5        2        500      0.5      0 
374618352 1                Inflow_Junction  5        2        500      0.5      0 
4366750502879205 1                Inflow_Junction  5        2        500      0.5      0 
3192359514743505 1                Inflow_Junction  5        2        500      0.5      0 
2856417823674605 1                Inflow_Junction  5        2        500      0.5      0 
5392525598865245 1                Inflow_Junction  5        2        500      0.5      0 
2642134275452815 1                Inflow_Junction  5        2        500      0.5      0 
4378984076889145 1                Inflow_Junction  5        2        500      0.5      0 
5151492757614795 1                Inflow_Junction  5        2        500      0.5      0 
369935481 1                Inflow_Junction  5        2        500      0.5      0 
4847216338966515 1                Inflow_Junction  5        2        500      0.5      0 
2447307614953445 1                Inflow_Junction  5        2        500      0.5      0 
2032739246028575 1                Inflow_Junction  5        2        500      0.5      0 
2848925417463575 1                Inflow_Junction  5        2        500      0.5      0 
369935492 1                Inflow_Junction  5        2        500      0.5      0 
1111139731076335 1                Inflow_Junction  5        2        500      0.5      0 
5475326729023655 1                Inflow_Junction  5        2        500      0.5      0 
4417402027643485 1                Inflow_Junction  5        2        500      0.5      0 
3631890676860415 1                Inflow_Junction  5        2        500      0.5      0 
1259843287409135 1                Inflow_Junction  5        2        500      0.5      0 
4531187286450895 1                Inflow_Junction  5        2        500      0.5      0 
2503183035170825 1                Inflow_Junction  5        2        500      0.5      0 
685969422 1                Inflow_Junction  5        2        500      0.5      0 
2178692651798225 1                Inflow_Junction  5        2        500      0.5      0 
5228144807642285 1                Inflow_Junction  5        2        500      0.5      0 
3341501580820655 1                Inflow_Junction  5        2        500      0.5      0 
369935491 1                Inflow_Junction  5        2        500      0.5      0 
4055665503038855 1                Inflow_Junction  5        2        500      0.5      0 
4173819424562755 1                Inflow_Junction  5        2        500      0.5      0 
3073843947496475 1                Inflow_Junction  5        2        500      0.5      0 
3343019278756995 1                Inflow_Junction  5        2        500      0.5      0 
5147588464920875 1                Inflow_Junction  5        2        500      0.5      0 
5067782000423435 1                Inflow_Junction  5        2        500      0.5      0 
2763899899408935 1                Inflow_Junction  5        2        500      0.5      0 
5586016532679685 1                Inflow_Junction  5        2        500      0.5      0 
685969421 1                Inflow_Junction  5        2        500      0.5      0 
4826380750437625 1                Inflow_Junction  5        2        500      0.5      0 
3990030549790375 1                Inflow_Junction  5        2        500      0.5      0 
2352187347101435 1                Inflow_Junction  5        2        500      0.5      0 
1484197558799525 1                Inflow_Junction  5        2        500      0.5      0 
4762499884831015 1                Inflow_Junction  5        2        500      0.5      0 
30491990645265 1                Inflow_Junction  5        2        500      0.5      0 
2955795723863475 1                Inflow_Junction  5        2        500      0.5      0 
3267633902079745 1                Inflow_Junction  5        2        500      0.5      0 
2463989059191605 1                Inflow_Junction  5        2        500      0.5      0 
685969506 1                Inflow_Junction  5        2        500      0.5      0 
5211189152060715 1                Inflow_Junction  5        2        500      0.5      0 
2336540103029365 1                Inflow_Junction  5        2        500      0.5      0 
5146673707210455 1                Inflow_Junction  5        2        500      0.5      0 
4168203065867455 1                Inflow_Junction  5        2        500      0.5      0 
4608323223395945 1                Inflow_Junction  5        2        500      0.5      0 
4896687439420135 1                Inflow_Junction  5        2        500      0.5      0 
2034305886544725 1                Inflow_Junction  5        2        500      0.5      0 
1576398127082235 1                Inflow_Junction  5        2        500      0.5      0 
4426753552692035 1                Inflow_Junction  5        2        500      0.5      0 
5194447969232425 1                Inflow_Junction  5        2        500      0.5      0 
5332349171156425 1                Inflow_Junction  5        2        500      0.5      0 
2047249395798475 1                Inflow_Junction  5        2        500      0.5      0 
2188043733750965 1                Inflow_Junction  5        2        500      0.5      0 
369935498 1                Inflow_Junction  5        2        500      0.5      0 
454779461573195 1                Inflow_Junction  5        2        500      0.5      0 
981222452918115 1                Inflow_Junction  5        2        500      0.5      0 
4536519102007625 1                Inflow_Junction  5        2        500      0.5      0 
3764507416045015 1                Inflow_Junction  5        2        500      0.5      0 
2764171537407805 1                Inflow_Junction  5        2        500      0.5      0 
35542754843295 1                Inflow_Junction  5        2        500      0.5      0 
3145458112439345 1                Inflow_Junction  5        2        500      0.5      0 
685969420 1                Inflow_Junction  5        2        500      0.5      0 
374629179 1                Inflow_Junction  5        2        500      0.5      0 
4882662409810355 1                Inflow_Junction  5        2        500      0.5      0 
4946297467208195 1                Inflow_Junction  5        2        500      0.5      0 
3657058617628565 1                Inflow_Junction  5        2        500      0.5      0 
3748868537834515 1                Inflow_Junction  5        2        500      0.5      0 
699679579653835 1                Inflow_Junction  5        2        500      0.5      0 
2134161769372955 1                Inflow_Junction  5        2        500      0.5      0 
1622953939623645 1                Inflow_Junction  5        2        500      0.5      0 
3319621841124585 1                Inflow_Junction  5        2        500      0.5      0 
2832122768449825 1                Inflow_Junction  5        2        500      0.5      0 
369935484 1                Inflow_Junction  5        2        500      0.5      0 
4213269972571925 1                Inflow_Junction  5        2        500      0.5      0 
3190857418838955 1                Inflow_Junction  5        2        500      0.5      0 
5362771495526235 1                Inflow_Junction  5        2        500      0.5      0 
1010939852248375 1                Inflow_Junction  5        2        500      0.5      0 
2948644652926145 1                Inflow_Junction  5        2        500      0.5      0 
829076604970865 1                Inflow_Junction  5        2        500      0.5      0 
866266398095085 1                Inflow_Junction  5        2        500      0.5      0 
2732528268007215 1                Inflow_Junction  5        2        500      0.5      0 
3577954589067715 1                Inflow_Junction  5        2        500      0.5      0 
212002852582935 1                Inflow_Junction  5        2        500      0.5      0 
370585504 1                Inflow_Junction  5        2        500      0.5      0 
368712050 1                Inflow_Junction  5        2        500      0.5      0 
4781426638890075 1                Inflow_Junction  5        2        500      0.5      0 
3817203869938315 1                Inflow_Junction  5        2        500      0.5      0 
370585520 1                Inflow_Junction  5        2        500      0.5      0 
1628479919972605 1                Inflow_Junction  5        2        500      0.5      0 
5589715707034675 1                Inflow_Junction  5        2        500      0.5      0 
711793401545355 1                Inflow_Junction  5        2        500      0.5      0 
4378542226292475 1                Inflow_Junction  5        2        500      0.5      0 
4206733021640875 1                Inflow_Junction  5        2        500      0.5      0 
966265191662405 1                Inflow_Junction  5        2        500      0.5      0 
368712060 1                Inflow_Junction  5        2        500      0.5      0 
1393412085548265 1                Inflow_Junction  5        2        500      0.5      0 
721787649 1                Inflow_Junction  5        2        500      0.5      0 
4237752585399175 1                Inflow_Junction  5        2        500      0.5      0 
1421024070737565 1                Inflow_Junction  5        2        500      0.5      0 
437954209903565 1                Inflow_Junction  5        2        500      0.5      0 
3286451274865115 1                Inflow_Junction  5        2        500      0.5      0 
721787652 1                Inflow_Junction  5        2        500      0.5      0 
3133584047869155 1                Inflow_Junction  5        2        500      0.5      0 
370585519 1                Inflow_Junction  5        2        500      0.5      0 
1589012553244655 1                Inflow_Junction  5        2        500      0.5      0 
247004020487835 1                Inflow_Junction  5        2        500      0.5      0 
1864395206438415 1                Inflow_Junction  5        2        500      0.5      0 
4598961597441255 1                Inflow_Junction  5        2        500      0.5      0 
120590377656545 1                Inflow_Junction  5        2        500      0.5      0 
368712047 1                Inflow_Junction  5        2        500      0.5      0 
368712046 1                Inflow_Junction  5        2        500      0.5      0 
1900961644915325 1                Inflow_Junction  5        2        500      0.5      0 
370585507 1                Inflow_Junction  5        2        500      0.5      0 
409605043776205 1                Inflow_Junction  5        2        500      0.5      0 
795965226282905 1                Inflow_Junction  5        2        500      0.5      0 
368712049 1                Inflow_Junction  5        2        500      0.5      0 
952994247658915 1                Inflow_Junction  5        2        500      0.5      0 
801675670687115 1                Inflow_Junction  5        2        500      0.5      0 
4988496527700225 1                Inflow_Junction  5        2        500      0.5      0 
370585506 1                Inflow_Junction  5        2        500      0.5      0 
3854055627708815 1                Inflow_Junction  5        2        500      0.5      0 
1040825350443645 1                Inflow_Junction  5        2        500      0.5      0 
374619484 1                Inflow_Junction  5        2        500      0.5      0 
374619483 1                Inflow_Junction  5        2        500      0.5      0 
1628880461292705 1                Inflow_Junction  5        2        500      0.5      0 
721787650 1                Inflow_Junction  5        2        500      0.5      0 
374628273 1                Inflow_Junction  5        2        500      0.5      0 
861816577792665 1                Inflow_Junction  5        2        500      0.5      0 
2116051648563975 1                Inflow_Junction  5        2        500      0.5      0 
3522841107387295 1                Inflow_Junction  5        2        500      0.5      0 
368712048 1                Inflow_Junction  5        2        500      0.5      0 
637952359439475 1                Inflow_Junction  5        2        500      0.5      0 
368712055 1                Inflow_Junction  5        2        500      0.5      0 
4613826830225855 1                Inflow_Junction  5        2        500      0.5      0 
2667335575648575 1                Inflow_Junction  5        2        500      0.5      0 
5409274409886665 1                Inflow_Junction  5        2        500      0.5      0 
364715643 1                Inflow_Junction  5        2        500      0.5      0 
381041283899525 1                Inflow_Junction  5        2        500      0.5      0 
3539091678084985 1                Inflow_Junction  5        2        500      0.5      0 
3582122251953965 1                Inflow_Junction  5        2        500      0.5      0 
3746221363912945 1                Inflow_Junction  5        2        500      0.5      0 
3259498311303025 1                Inflow_Junction  5        2        500      0.5      0 
3862000756848945 1                Inflow_Junction  5        2        500      0.5      0 
4558738806802605 1                Inflow_Junction  5        2        500      0.5      0 
2064166679241105 1                Inflow_Junction  5        2        500      0.5      0 
4165551708679725 1                Inflow_Junction  5        2        500      0.5      0 
4612892721223285 1                Inflow_Junction  5        2        500      0.5      0 
2207181747202975 1                Inflow_Junction  5        2        500      0.5      0 
4301263148797945 1                Inflow_Junction  5        2        500      0.5      0 
1962537840191015 1                Inflow_Junction  5        2        500      0.5      0 
721787651 1                Inflow_Junction  5        2        500      0.5      0 
370585517 1                Inflow_Junction  5        2        500      0.5      0 
4801765664206345 1                Inflow_Junction  5        2        500      0.5      0 
3950597387079895 1                Inflow_Junction  5        2        500      0.5      0 
2397615896902025 1                Inflow_Junction  5        2        500      0.5      0 
377012321 1                Inflow_Junction  5        2        500      0.5      0 
4847245522107915 1                Inflow_Junction  5        2        500      0.5      0 
1132613939401485 1                Inflow_Junction  5        2        500      0.5      0 
2399591986837325 1                Inflow_Junction  5        2        500      0.5      0 
326029627192085 1                Inflow_Junction  5        2        500      0.5      0 
3456045485106165 1                Inflow_Junction  5        2        500      0.5      0 
692921538544105 1                Inflow_Junction  5        2        500      0.5      0 
370585518 1                Inflow_Junction  5        2        500      0.5      0 
1677930110109955 1                Inflow_Junction  5        2        500      0.5      0 
130207182421095 1                Inflow_Junction  5        2        500      0.5      0 
377012318 1                Inflow_Junction  5        2        500      0.5      0 
1756026724703285 1                Inflow_Junction  5        2        500      0.5      0 
3313063492023585 1                Inflow_Junction  5        2        500      0.5      0 
5335898301453125 1                Inflow_Junction  5        2        500      0.5      0 
368712053 1                Inflow_Junction  5        2        500      0.5      0 
2027369226731165 1                Inflow_Junction  5        2        500      0.5      0 
4344755167503755 1                Inflow_Junction  5        2        500      0.5      0 
2819143166367115 1                Inflow_Junction  5        2        500      0.5      0 
5226770040946865 1                Inflow_Junction  5        2        500      0.5      0 
370585515 1                Inflow_Junction  5        2        500      0.5      0 
4774750473818415 1                Inflow_Junction  5        2        500      0.5      0 
1672146114614205 1                Inflow_Junction  5        2        500      0.5      0 
685589671888935 1                Inflow_Junction  5        2        500      0.5      0 
368712054 1                Inflow_Junction  5        2        500      0.5      0 
1994032613021375 1                Inflow_Junction  5        2        500      0.5      0 
3697432820905225 1                Inflow_Junction  5        2        500      0.5      0 
5000351116843335 1                Inflow_Junction  5        2        500      0.5      0 
1498044573514795 1                Inflow_Junction  5        2        500      0.5      0 
1960291464487155 1                Inflow_Junction  5        2        500      0.5      0 
5321709489729195 1                Inflow_Junction  5        2        500      0.5      0 
3688883305990495 1                Inflow_Junction  5        2        500      0.5      0 
192961077389405 1                Inflow_Junction  5        2        500      0.5      0 
4622887405380415 1                Inflow_Junction  5        2        500      0.5      0 
3904913789227845 1                Inflow_Junction  5        2        500      0.5      0 
2271166188378195 1                Inflow_Junction  5        2        500      0.5      0 
370585510 1                Inflow_Junction  5        2        500      0.5      0 
4321670386697615 1                Inflow_Junction  5        2        500      0.5      0 
3415495920499105 1                Inflow_Junction  5        2        500      0.5      0 
2182615645389815 1                Inflow_Junction  5        2        500      0.5      0 
4141514114858465 1                Inflow_Junction  5        2        500      0.5      0 
5493748981373755 1                Inflow_Junction  5        2        500      0.5      0 
5384878284056325 1                Inflow_Junction  5        2        500      0.5      0 
654666748367505 1                Inflow_Junction  5        2        500      0.5      0 
2718816973315145 1                Inflow_Junction  5        2        500      0.5      0 
2887538907222905 1                Inflow_Junction  5        2        500      0.5      0 
364715640 1                Inflow_Junction  5        2        500      0.5      0 