[TITLE]
;;Project Title/Notes
;[PCS]
swmmNode_proj    utm        19                 WGS84              ft                 no_defs    
;[TRANSFORM]
swmmNode_t       1663563.9226540488   4389967.627853039    1                    0                 

[OPTIONS]
;;Option             Value
FLOW_UNITS           CMS
INFILTRATION         HORTON
FLOW_ROUTING         DYNWAVE
LINK_OFFSETS         DEPTH
MIN_SLOPE            0
ALLOW_PONDING        YES
SKIP_STEADY_STATE    NO

START_DATE           04/26/2023
START_TIME           00:00:00
REPORT_START_DATE    04/26/2023
REPORT_START_TIME    00:00:00
END_DATE             04/26/2023
END_TIME             12:00:00
SWEEP_START          01/01
SWEEP_END            12/31
DRY_DAYS             0
REPORT_STEP          00:15:00
WET_STEP             00:00:01
DRY_STEP             01:00:00
ROUTING_STEP         0:00:01 
RULE_STEP            00:00:00

INERTIAL_DAMPING     FULL
NORMAL_FLOW_LIMITED  BOTH
FORCE_MAIN_EQUATION  H-W
VARIABLE_STEP        0.75
LENGTHENING_STEP     0
MIN_SURFAREA         12.566
MAX_TRIALS           8
HEAD_TOLERANCE       0.005
SYS_FLOW_TOL         5
LAT_FLOW_TOL         5
MINIMUM_STEP         0.5
THREADS              1

[EVAPORATION]
;;Data Source    Parameters
;;-------------- ----------------
CONSTANT         0.0
DRY_ONLY         NO

[RAINGAGES]
;;Name           Format    Interval SCF      Source    
;;-------------- --------- ------ ------ ----------
1                INTENSITY 0.1     1.0      TIMESERIES rg1             

[SUBCATCHMENTS]
;;Name           Rain Gage        Outlet           Area     %Imperv  Width    %Slope   CurbLen  SnowPack        
;;-------------- ---------------- ---------------- -------- -------- -------- -------- -------- ----------------
0 1                Inflow_Junction  5        2        500      0.5      0 
1 1                Inflow_Junction  5        2        500      0.5      0 
2 1                Inflow_Junction  5        2        500      0.5      0 
3 1                Inflow_Junction  5        2        500      0.5      0 
4 1                Inflow_Junction  5        2        500      0.5      0 
5 1                Inflow_Junction  5        2        500      0.5      0 
6 1                Inflow_Junction  5        2        500      0.5      0 
7 1                Inflow_Junction  5        2        500      0.5      0 
8 1                Inflow_Junction  5        2        500      0.5      0 
9 1                Inflow_Junction  5        2        500      0.5      0 
10 1                Inflow_Junction  5        2        500      0.5      0 
11 1                Inflow_Junction  5        2        500      0.5      0 
12 1                Inflow_Junction  5        2        500      0.5      0 
13 1                Inflow_Junction  5        2        500      0.5      0 
14 1                Inflow_Junction  5        2        500      0.5      0 
15 1                Inflow_Junction  5        2        500      0.5      0 
16 1                Inflow_Junction  5        2        500      0.5      0 
17 1                Inflow_Junction  5        2        500      0.5      0 
18 1                Inflow_Junction  5        2        500      0.5      0 
19 1                Inflow_Junction  5        2        500      0.5      0 
20 1                Inflow_Junction  5        2        500      0.5      0 
21 1                Inflow_Junction  5        2        500      0.5      0 
22 1                Inflow_Junction  5        2        500      0.5      0 
23 1                Inflow_Junction  5        2        500      0.5      0 
24 1                Inflow_Junction  5        2        500      0.5      0 
25 1                Inflow_Junction  5        2        500      0.5      0 
26 1                Inflow_Junction  5        2        500      0.5      0 
27 1                Inflow_Junction  5        2        500      0.5      0 
28 1                Inflow_Junction  5        2        500      0.5      0 
29 1                Inflow_Junction  5        2        500      0.5      0 
30 1                Inflow_Junction  5        2        500      0.5      0 
31 1                Inflow_Junction  5        2        500      0.5      0 
32 1                Inflow_Junction  5        2        500      0.5      0 
33 1                Inflow_Junction  5        2        500      0.5      0 
34 1                Inflow_Junction  5        2        500      0.5      0 
35 1                Inflow_Junction  5        2        500      0.5      0 
36 1                Inflow_Junction  5        2        500      0.5      0 
37 1                Inflow_Junction  5        2        500      0.5      0 
38 1                Inflow_Junction  5        2        500      0.5      0 
39 1                Inflow_Junction  5        2        500      0.5      0 
40 1                Inflow_Junction  5        2        500      0.5      0 
41 1                Inflow_Junction  5        2        500      0.5      0 
42 1                Inflow_Junction  5        2        500      0.5      0 
43 1                Inflow_Junction  5        2        500      0.5      0 
44 1                Inflow_Junction  5        2        500      0.5      0 
45 1                Inflow_Junction  5        2        500      0.5      0 
46 1                Inflow_Junction  5        2        500      0.5      0 
47 1                Inflow_Junction  5        2        500      0.5      0 
48 1                Inflow_Junction  5        2        500      0.5      0 
49 1                Inflow_Junction  5        2        500      0.5      0 
50 1                Inflow_Junction  5        2        500      0.5      0 
51 1                Inflow_Junction  5        2        500      0.5      0 
52 1                Inflow_Junction  5        2        500      0.5      0 
53 1                Inflow_Junction  5        2        500      0.5      0 
54 1                Inflow_Junction  5        2        500      0.5      0 
55 1                Inflow_Junction  5        2        500      0.5      0 
56 1                Inflow_Junction  5        2        500      0.5      0 
57 1                Inflow_Junction  5        2        500      0.5      0 
58 1                Inflow_Junction  5        2        500      0.5      0 
59 1                Inflow_Junction  5        2        500      0.5      0 
60 1                Inflow_Junction  5        2        500      0.5      0 
61 1                Inflow_Junction  5        2        500      0.5      0 
62 1                Inflow_Junction  5        2        500      0.5      0 
63 1                Inflow_Junction  5        2        500      0.5      0 
64 1                Inflow_Junction  5        2        500      0.5      0 
65 1                Inflow_Junction  5        2        500      0.5      0 
66 1                Inflow_Junction  5        2        500      0.5      0 
67 1                Inflow_Junction  5        2        500      0.5      0 
68 1                Inflow_Junction  5        2        500      0.5      0 
69 1                Inflow_Junction  5        2        500      0.5      0 
70 1                Inflow_Junction  5        2        500      0.5      0 
71 1                Inflow_Junction  5        2        500      0.5      0 
72 1                Inflow_Junction  5        2        500      0.5      0 
73 1                Inflow_Junction  5        2        500      0.5      0 
74 1                Inflow_Junction  5        2        500      0.5      0 
75 1                Inflow_Junction  5        2        500      0.5      0 
76 1                Inflow_Junction  5        2        500      0.5      0 
77 1                Inflow_Junction  5        2        500      0.5      0 
78 1                Inflow_Junction  5        2        500      0.5      0 
79 1                Inflow_Junction  5        2        500      0.5      0 
80 1                Inflow_Junction  5        2        500      0.5      0 
81 1                Inflow_Junction  5        2        500      0.5      0 
82 1                Inflow_Junction  5        2        500      0.5      0 
83 1                Inflow_Junction  5        2        500      0.5      0 
84 1                Inflow_Junction  5        2        500      0.5      0 
85 1                Inflow_Junction  5        2        500      0.5      0 
86 1                Inflow_Junction  5        2        500      0.5      0 
87 1                Inflow_Junction  5        2        500      0.5      0 
88 1                Inflow_Junction  5        2        500      0.5      0 
89 1                Inflow_Junction  5        2        500      0.5      0 
90 1                Inflow_Junction  5        2        500      0.5      0 
91 1                Inflow_Junction  5        2        500      0.5      0 
92 1                Inflow_Junction  5        2        500      0.5      0 
93 1                Inflow_Junction  5        2        500      0.5      0 
94 1                Inflow_Junction  5        2        500      0.5      0 
95 1                Inflow_Junction  5        2        500      0.5      0 
96 1                Inflow_Junction  5        2        500      0.5      0 
97 1                Inflow_Junction  5        2        500      0.5      0 
98 1                Inflow_Junction  5        2        500      0.5      0 
99 1                Inflow_Junction  5        2        500      0.5      0 
100 1                Inflow_Junction  5        2        500      0.5      0 
101 1                Inflow_Junction  5        2        500      0.5      0 
102 1                Inflow_Junction  5        2        500      0.5      0 
103 1                Inflow_Junction  5        2        500      0.5      0 
104 1                Inflow_Junction  5        2        500      0.5      0 
105 1                Inflow_Junction  5        2        500      0.5      0 
106 1                Inflow_Junction  5        2        500      0.5      0 
107 1                Inflow_Junction  5        2        500      0.5      0 
108 1                Inflow_Junction  5        2        500      0.5      0 
109 1                Inflow_Junction  5        2        500      0.5      0 
110 1                Inflow_Junction  5        2        500      0.5      0 
111 1                Inflow_Junction  5        2        500      0.5      0 
112 1                Inflow_Junction  5        2        500      0.5      0 
113 1                Inflow_Junction  5        2        500      0.5      0 
114 1                Inflow_Junction  5        2        500      0.5      0 
115 1                Inflow_Junction  5        2        500      0.5      0 
116 1                Inflow_Junction  5        2        500      0.5      0 
117 1                Inflow_Junction  5        2        500      0.5      0 
118 1                Inflow_Junction  5        2        500      0.5      0 
119 1                Inflow_Junction  5        2        500      0.5      0 
120 1                Inflow_Junction  5        2        500      0.5      0 
121 1                Inflow_Junction  5        2        500      0.5      0 
122 1                Inflow_Junction  5        2        500      0.5      0 
123 1                Inflow_Junction  5        2        500      0.5      0 
124 1                Inflow_Junction  5        2        500      0.5      0 
125 1                Inflow_Junction  5        2        500      0.5      0 
126 1                Inflow_Junction  5        2        500      0.5      0 
127 1                Inflow_Junction  5        2        500      0.5      0 
128 1                Inflow_Junction  5        2        500      0.5      0 
129 1                Inflow_Junction  5        2        500      0.5      0 
130 1                Inflow_Junction  5        2        500      0.5      0 
131 1                Inflow_Junction  5        2        500      0.5      0 
132 1                Inflow_Junction  5        2        500      0.5      0 
133 1                Inflow_Junction  5        2        500      0.5      0 
134 1                Inflow_Junction  5        2        500      0.5      0 
135 1                Inflow_Junction  5        2        500      0.5      0 
136 1                Inflow_Junction  5        2        500      0.5      0 
137 1                Inflow_Junction  5        2        500      0.5      0 
138 1                Inflow_Junction  5        2        500      0.5      0 
139 1                Inflow_Junction  5        2        500      0.5      0 
140 1                Inflow_Junction  5        2        500      0.5      0 
141 1                Inflow_Junction  5        2        500      0.5      0 
142 1                Inflow_Junction  5        2        500      0.5      0 
143 1                Inflow_Junction  5        2        500      0.5      0 
144 1                Inflow_Junction  5        2        500      0.5      0 
145 1                Inflow_Junction  5        2        500      0.5      0 
146 1                Inflow_Junction  5        2        500      0.5      0 
147 1                Inflow_Junction  5        2        500      0.5      0 
148 1                Inflow_Junction  5        2        500      0.5      0 
149 1                Inflow_Junction  5        2        500      0.5      0 
150 1                Inflow_Junction  5        2        500      0.5      0 
151 1                Inflow_Junction  5        2        500      0.5      0 
152 1                Inflow_Junction  5        2        500      0.5      0 
153 1                Inflow_Junction  5        2        500      0.5      0 
154 1                Inflow_Junction  5        2        500      0.5      0 
155 1                Inflow_Junction  5        2        500      0.5      0 
156 1                Inflow_Junction  5        2        500      0.5      0 
157 1                Inflow_Junction  5        2        500      0.5      0 
158 1                Inflow_Junction  5        2        500      0.5      0 
159 1                Inflow_Junction  5        2        500      0.5      0 
160 1                Inflow_Junction  5        2        500      0.5      0 
161 1                Inflow_Junction  5        2        500      0.5      0 
162 1                Inflow_Junction  5        2        500      0.5      0 
163 1                Inflow_Junction  5        2        500      0.5      0 
164 1                Inflow_Junction  5        2        500      0.5      0 
165 1                Inflow_Junction  5        2        500      0.5      0 
166 1                Inflow_Junction  5        2        500      0.5      0 
167 1                Inflow_Junction  5        2        500      0.5      0 
168 1                Inflow_Junction  5        2        500      0.5      0 
169 1                Inflow_Junction  5        2        500      0.5      0 
170 1                Inflow_Junction  5        2        500      0.5      0 
171 1                Inflow_Junction  5        2        500      0.5      0 
172 1                Inflow_Junction  5        2        500      0.5      0 
173 1                Inflow_Junction  5        2        500      0.5      0 
174 1                Inflow_Junction  5        2        500      0.5      0 
175 1                Inflow_Junction  5        2        500      0.5      0 
176 1                Inflow_Junction  5        2        500      0.5      0 
177 1                Inflow_Junction  5        2        500      0.5      0 
178 1                Inflow_Junction  5        2        500      0.5      0 
179 1                Inflow_Junction  5        2        500      0.5      0 
180 1                Inflow_Junction  5        2        500      0.5      0 
181 1                Inflow_Junction  5        2        500      0.5      0 
182 1                Inflow_Junction  5        2        500      0.5      0 
183 1                Inflow_Junction  5        2        500      0.5      0 
184 1                Inflow_Junction  5        2        500      0.5      0 
185 1                Inflow_Junction  5        2        500      0.5      0 
186 1                Inflow_Junction  5        2        500      0.5      0 
187 1                Inflow_Junction  5        2        500      0.5      0 
188 1                Inflow_Junction  5        2        500      0.5      0 
189 1                Inflow_Junction  5        2        500      0.5      0 
190 1                Inflow_Junction  5        2        500      0.5      0 
191 1                Inflow_Junction  5        2        500      0.5      0 
192 1                Inflow_Junction  5        2        500      0.5      0 
193 1                Inflow_Junction  5        2        500      0.5      0 
194 1                Inflow_Junction  5        2        500      0.5      0 
195 1                Inflow_Junction  5        2        500      0.5      0 
196 1                Inflow_Junction  5        2        500      0.5      0 
197 1                Inflow_Junction  5        2        500      0.5      0 
198 1                Inflow_Junction  5        2        500      0.5      0 
199 1                Inflow_Junction  5        2        500      0.5      0 
200 1                Inflow_Junction  5        2        500      0.5      0 
201 1                Inflow_Junction  5        2        500      0.5      0 
202 1                Inflow_Junction  5        2        500      0.5      0 
203 1                Inflow_Junction  5        2        500      0.5      0 
204 1                Inflow_Junction  5        2        500      0.5      0 
205 1                Inflow_Junction  5        2        500      0.5      0 
206 1                Inflow_Junction  5        2        500      0.5      0 
207 1                Inflow_Junction  5        2        500      0.5      0 
208 1                Inflow_Junction  5        2        500      0.5      0 
209 1                Inflow_Junction  5        2        500      0.5      0 
210 1                Inflow_Junction  5        2        500      0.5      0 
211 1                Inflow_Junction  5        2        500      0.5      0 
212 1                Inflow_Junction  5        2        500      0.5      0 
213 1                Inflow_Junction  5        2        500      0.5      0 
214 1                Inflow_Junction  5        2        500      0.5      0 
215 1                Inflow_Junction  5        2        500      0.5      0 
216 1                Inflow_Junction  5        2        500      0.5      0 
217 1                Inflow_Junction  5        2        500      0.5      0 
218 1                Inflow_Junction  5        2        500      0.5      0 
219 1                Inflow_Junction  5        2        500      0.5      0 
220 1                Inflow_Junction  5        2        500      0.5      0 
221 1                Inflow_Junction  5        2        500      0.5      0 
222 1                Inflow_Junction  5        2        500      0.5      0 
223 1                Inflow_Junction  5        2        500      0.5      0 
224 1                Inflow_Junction  5        2        500      0.5      0 
225 1                Inflow_Junction  5        2        500      0.5      0 
226 1                Inflow_Junction  5        2        500      0.5      0 
227 1                Inflow_Junction  5        2        500      0.5      0 
228 1                Inflow_Junction  5        2        500      0.5      0 
229 1                Inflow_Junction  5        2        500      0.5      0 
230 1                Inflow_Junction  5        2        500      0.5      0 
231 1                Inflow_Junction  5        2        500      0.5      0 
232 1                Inflow_Junction  5        2        500      0.5      0 
233 1                Inflow_Junction  5        2        500      0.5      0 
234 1                Inflow_Junction  5        2        500      0.5      0 
235 1                Inflow_Junction  5        2        500      0.5      0 
236 1                Inflow_Junction  5        2        500      0.5      0 
237 1                Inflow_Junction  5        2        500      0.5      0 
238 1                Inflow_Junction  5        2        500      0.5      0 
239 1                Inflow_Junction  5        2        500      0.5      0 
240 1                Inflow_Junction  5        2        500      0.5      0 
241 1                Inflow_Junction  5        2        500      0.5      0 
242 1                Inflow_Junction  5        2        500      0.5      0 
243 1                Inflow_Junction  5        2        500      0.5      0 
244 1                Inflow_Junction  5        2        500      0.5      0 
245 1                Inflow_Junction  5        2        500      0.5      0 
246 1                Inflow_Junction  5        2        500      0.5      0 
247 1                Inflow_Junction  5        2        500      0.5      0 
248 1                Inflow_Junction  5        2        500      0.5      0 
249 1                Inflow_Junction  5        2        500      0.5      0 
250 1                Inflow_Junction  5        2        500      0.5      0 
251 1                Inflow_Junction  5        2        500      0.5      0 
252 1                Inflow_Junction  5        2        500      0.5      0 
253 1                Inflow_Junction  5        2        500      0.5      0 
254 1                Inflow_Junction  5        2        500      0.5      0 
255 1                Inflow_Junction  5        2        500      0.5      0 
256 1                Inflow_Junction  5        2        500      0.5      0 
257 1                Inflow_Junction  5        2        500      0.5      0 
258 1                Inflow_Junction  5        2        500      0.5      0 
259 1                Inflow_Junction  5        2        500      0.5      0 
260 1                Inflow_Junction  5        2        500      0.5      0 
261 1                Inflow_Junction  5        2        500      0.5      0 
262 1                Inflow_Junction  5        2        500      0.5      0 
263 1                Inflow_Junction  5        2        500      0.5      0 
264 1                Inflow_Junction  5        2        500      0.5      0 
265 1                Inflow_Junction  5        2        500      0.5      0 
266 1                Inflow_Junction  5        2        500      0.5      0 
267 1                Inflow_Junction  5        2        500      0.5      0 
268 1                Inflow_Junction  5        2        500      0.5      0 
269 1                Inflow_Junction  5        2        500      0.5      0 
270 1                Inflow_Junction  5        2        500      0.5      0 
271 1                Inflow_Junction  5        2        500      0.5      0 
272 1                Inflow_Junction  5        2        500      0.5      0 
273 1                Inflow_Junction  5        2        500      0.5      0 
274 1                Inflow_Junction  5        2        500      0.5      0 
275 1                Inflow_Junction  5        2        500      0.5      0 
276 1                Inflow_Junction  5        2        500      0.5      0 
277 1                Inflow_Junction  5        2        500      0.5      0 
278 1                Inflow_Junction  5        2        500      0.5      0 
279 1                Inflow_Junction  5        2        500      0.5      0 
280 1                Inflow_Junction  5        2        500      0.5      0 
281 1                Inflow_Junction  5        2        500      0.5      0 
282 1                Inflow_Junction  5        2        500      0.5      0 
283 1                Inflow_Junction  5        2        500      0.5      0 
284 1                Inflow_Junction  5        2        500      0.5      0 
285 1                Inflow_Junction  5        2        500      0.5      0 
286 1                Inflow_Junction  5        2        500      0.5      0 
287 1                Inflow_Junction  5        2        500      0.5      0 
288 1                Inflow_Junction  5        2        500      0.5      0 
289 1                Inflow_Junction  5        2        500      0.5      0 
290 1                Inflow_Junction  5        2        500      0.5      0 
291 1                Inflow_Junction  5        2        500      0.5      0 
292 1                Inflow_Junction  5        2        500      0.5      0 
293 1                Inflow_Junction  5        2        500      0.5      0 
294 1                Inflow_Junction  5        2        500      0.5      0 
295 1                Inflow_Junction  5        2        500      0.5      0 
296 1                Inflow_Junction  5        2        500      0.5      0 
297 1                Inflow_Junction  5        2        500      0.5      0 
298 1                Inflow_Junction  5        2        500      0.5      0 
299 1                Inflow_Junction  5        2        500      0.5      0 
300 1                Inflow_Junction  5        2        500      0.5      0 

[SUBAREAS]
;;Subcatchment   N-Imperv   N-Perv     S-Imperv   S-Perv     PctZero    RouteTo    PctRouted 
;;-------------- ---------- ---------- ---------- ---------- ---------- ---------- ----------
0 0.01       0.1        0.05       0.05       25         OUTLET 
1 0.01       0.1        0.05       0.05       25         OUTLET 
2 0.01       0.1        0.05       0.05       25         OUTLET 
3 0.01       0.1        0.05       0.05       25         OUTLET 
4 0.01       0.1        0.05       0.05       25         OUTLET 
5 0.01       0.1        0.05       0.05       25         OUTLET 
6 0.01       0.1        0.05       0.05       25         OUTLET 
7 0.01       0.1        0.05       0.05       25         OUTLET 
8 0.01       0.1        0.05       0.05       25         OUTLET 
9 0.01       0.1        0.05       0.05       25         OUTLET 
10 0.01       0.1        0.05       0.05       25         OUTLET 
11 0.01       0.1        0.05       0.05       25         OUTLET 
12 0.01       0.1        0.05       0.05       25         OUTLET 
13 0.01       0.1        0.05       0.05       25         OUTLET 
14 0.01       0.1        0.05       0.05       25         OUTLET 
15 0.01       0.1        0.05       0.05       25         OUTLET 
16 0.01       0.1        0.05       0.05       25         OUTLET 
17 0.01       0.1        0.05       0.05       25         OUTLET 
18 0.01       0.1        0.05       0.05       25         OUTLET 
19 0.01       0.1        0.05       0.05       25         OUTLET 
20 0.01       0.1        0.05       0.05       25         OUTLET 
21 0.01       0.1        0.05       0.05       25         OUTLET 
22 0.01       0.1        0.05       0.05       25         OUTLET 
23 0.01       0.1        0.05       0.05       25         OUTLET 
24 0.01       0.1        0.05       0.05       25         OUTLET 
25 0.01       0.1        0.05       0.05       25         OUTLET 
26 0.01       0.1        0.05       0.05       25         OUTLET 
27 0.01       0.1        0.05       0.05       25         OUTLET 
28 0.01       0.1        0.05       0.05       25         OUTLET 
29 0.01       0.1        0.05       0.05       25         OUTLET 
30 0.01       0.1        0.05       0.05       25         OUTLET 
31 0.01       0.1        0.05       0.05       25         OUTLET 
32 0.01       0.1        0.05       0.05       25         OUTLET 
33 0.01       0.1        0.05       0.05       25         OUTLET 
34 0.01       0.1        0.05       0.05       25         OUTLET 
35 0.01       0.1        0.05       0.05       25         OUTLET 
36 0.01       0.1        0.05       0.05       25         OUTLET 
37 0.01       0.1        0.05       0.05       25         OUTLET 
38 0.01       0.1        0.05       0.05       25         OUTLET 
39 0.01       0.1        0.05       0.05       25         OUTLET 
40 0.01       0.1        0.05       0.05       25         OUTLET 
41 0.01       0.1        0.05       0.05       25         OUTLET 
42 0.01       0.1        0.05       0.05       25         OUTLET 
43 0.01       0.1        0.05       0.05       25         OUTLET 
44 0.01       0.1        0.05       0.05       25         OUTLET 
45 0.01       0.1        0.05       0.05       25         OUTLET 
46 0.01       0.1        0.05       0.05       25         OUTLET 
47 0.01       0.1        0.05       0.05       25         OUTLET 
48 0.01       0.1        0.05       0.05       25         OUTLET 
49 0.01       0.1        0.05       0.05       25         OUTLET 
50 0.01       0.1        0.05       0.05       25         OUTLET 
51 0.01       0.1        0.05       0.05       25         OUTLET 
52 0.01       0.1        0.05       0.05       25         OUTLET 
53 0.01       0.1        0.05       0.05       25         OUTLET 
54 0.01       0.1        0.05       0.05       25         OUTLET 
55 0.01       0.1        0.05       0.05       25         OUTLET 
56 0.01       0.1        0.05       0.05       25         OUTLET 
57 0.01       0.1        0.05       0.05       25         OUTLET 
58 0.01       0.1        0.05       0.05       25         OUTLET 
59 0.01       0.1        0.05       0.05       25         OUTLET 
60 0.01       0.1        0.05       0.05       25         OUTLET 
61 0.01       0.1        0.05       0.05       25         OUTLET 
62 0.01       0.1        0.05       0.05       25         OUTLET 
63 0.01       0.1        0.05       0.05       25         OUTLET 
64 0.01       0.1        0.05       0.05       25         OUTLET 
65 0.01       0.1        0.05       0.05       25         OUTLET 
66 0.01       0.1        0.05       0.05       25         OUTLET 
67 0.01       0.1        0.05       0.05       25         OUTLET 
68 0.01       0.1        0.05       0.05       25         OUTLET 
69 0.01       0.1        0.05       0.05       25         OUTLET 
70 0.01       0.1        0.05       0.05       25         OUTLET 
71 0.01       0.1        0.05       0.05       25         OUTLET 
72 0.01       0.1        0.05       0.05       25         OUTLET 
73 0.01       0.1        0.05       0.05       25         OUTLET 
74 0.01       0.1        0.05       0.05       25         OUTLET 