[TITLE]
;;Project Title/Notes
Illustration of the difference between OUTLET and PERVIOUS subarea routing options for a simple 1-acre subcatchment subject to 3 inches of rainfall.

;[PCS]
;;Name           proj      zone                datum              units              defs   
;;------------------------------------------------------------------------------------------------------------------
swmmNode_proj    utm        53                 WGS84              ft                 no_defs    


;[TRANSFORM]
;;Name           x                    y                    size                 rotation  
;;------------------------------------------------------------------------------------------------------------------
swmmNode_t       1536894.7422306438   12270230.03599766    1                    0.35                 

[OPTIONS]
;;Option             Value
FLOW_UNITS           CFS
INFILTRATION         MODIFIED_GREEN_AMPT
FLOW_ROUTING         DYNWAVE
LINK_OFFSETS         DEPTH
MIN_SLOPE            0
ALLOW_PONDING        NO
SKIP_STEADY_STATE    NO

START_DATE           06/02/2018
START_TIME           00:00:00
REPORT_START_DATE    06/02/2018
REPORT_START_TIME    00:00:00
END_DATE             06/02/2018
END_TIME             03:00:00
SWEEP_START          1/1
SWEEP_END            12/31
DRY_DAYS             0
REPORT_STEP          00:01:00
WET_STEP             00:01:00
DRY_STEP             01:00:00
ROUTING_STEP         0:01:00 
RULE_STEP            00:00:00

INERTIAL_DAMPING     NONE
NORMAL_FLOW_LIMITED  BOTH
FORCE_MAIN_EQUATION  H-W
VARIABLE_STEP        0.00
LENGTHENING_STEP     0
MIN_SURFAREA         12.6
MAX_TRIALS           8
HEAD_TOLERANCE       0.0015
SYS_FLOW_TOL         5
LAT_FLOW_TOL         5
MINIMUM_STEP         0.5
THREADS              1

[EVAPORATION]
;;Data Source    Parameters
;;-------------- ----------------
CONSTANT         0.0
DRY_ONLY         NO

[RAINGAGES]
;;Name           Format    Interval SCF      Source    
;;-------------- --------- ------ ------ ----------
UniformRainfall  INTENSITY 1:00     1.0      TIMESERIES UniformRainfall 

[SUBCATCHMENTS]
;;Name           Rain Gage        Outlet           Area     %Imperv  Width    %Slope   CurbLen  SnowPack        
;;-------------- ---------------- ---------------- -------- -------- -------- -------- -------- ----------------
SubareaRouting   UniformRainfall  Outfall1         1        30       100      1        0                        
DCIA             UniformRainfall  Outfall2         1        15       100      1        0                        
IA               UniformRainfall  Outfall3         1        30       100      1        0                        

[SUBAREAS]
;;Subcatchment   N-Imperv   N-Perv     S-Imperv   S-Perv     PctZero    RouteTo    PctRouted 
;;-------------- ---------- ---------- ---------- ---------- ---------- ---------- ----------
SubareaRouting   0.02       0.2        0.2        0.4        15         PERVIOUS   50        
DCIA             0.02       0.2        0.2        0.4        15         OUTLET    
IA               0.02       0.2        0.2        0.4        15         OUTLET    

[INFILTRATION]
;;Subcatchment   Param1     Param2     Param3     Param4     Param5    
;;-------------- ---------- ---------- ---------- ---------- ----------
SubareaRouting   4          0.5        0.35       7          0         
DCIA             4          0.5        0.35       7          0         
IA               4          0.5        0.35       7          0         

[OUTFALLS]
;;Name           Elevation  Type       Stage Data       Gated    Route To        
;;-------------- ---------- ---------- ---------------- -------- ----------------
Outfall1         850        FREE                        NO                       
Outfall2         850        FREE                        NO                       
Outfall3         850        FREE                        NO                       

[TIMESERIES]
;;Name           Date       Time       Value     
;;-------------- ---------- ---------- ----------
UniformRainfall             0:00       1         
UniformRainfall             1:00       0         

[REPORT]
;;Reporting Options
INPUT      YES
SUBCATCHMENTS ALL
NODES ALL
LINKS ALL

[TAGS]

[MAP]
DIMENSIONS            0  0   10  10  
Units      None

[COORDINATES]
;;Node           X-Coord            Y-Coord           
;;------------------------------------------------------------------------------------------------------------------
Outfall1         50                 -30                
Outfall2         160                -30                
Outfall3         270                -30                


[Polygons]
;;Subcatchment   X-Coord            Y-Coord           
;;------------------------------------------------------------------------------------------------------------------
SubareaRouting   0                  0                  
SubareaRouting   100                0                  
SubareaRouting   100                425                
SubareaRouting   0                  425                   
DCIA             110                0                  
DCIA             210                0                  
DCIA             210                425                
DCIA             110                425                  
IA               220                0                  
IA               320                0                  
IA               320                425                
IA               220                425         

[SYMBOLS]
;;Gage           X-Coord            Y-Coord           
;;-------------- ------------------ ------------------

